/batch
/config,noeldb,1     ! force off writing results to database
*get,_wallstrt,active,,time,wall
! ANSYS input file written by Workbench version 19.0 RELEASE
! File used for geometry attach: E:\practicle\fem project\plate.IGS
/title,ansys--Static Structural (A5)
*DIM,_wb_ProjectScratch_dir,string,248
_wb_ProjectScratch_dir(1) = 'E:\practicle\fem project\_ProjectScratch\Scr7733\'
*DIM,_wb_SolverFiles_dir,string,248
_wb_SolverFiles_dir(1) = 'E:\practicle\fem project\ansys_files\dp0\SYS\MECH\'
*DIM,_wb_userfiles_dir,string,248
_wb_userfiles_dir(1) = 'E:\practicle\fem project\ansys_files\user_files\'
/com,--- Data in consistent MKS units. See Solving Units in the help system for more information.
/units,MKS
/nopr
/wb,file,start              !  signify a WB generated input file
/prep7
! Turn off shape checking because checks already performed inside WB mesher.
! See help system for more information.
SHPP,OFF,,NOWARN
/nolist
etcon,set             ! allow ANSYS to choose best KEYOP's for 180x elements
/com,*********** Nodes for the whole assembly ***********
nblock,3,,6798
(1i9,3e20.9e3)
        1   -1.319890823E+000    0.000000000E+000    1.916017628E+000
        2   -1.319890823E+000    0.000000000E+000    1.812569352E+000
        3   -1.319890823E+000    0.000000000E+000    1.709121076E+000
        4   -1.319890823E+000    0.000000000E+000    1.605672800E+000
        5   -1.319890823E+000    0.000000000E+000    1.502224524E+000
        6   -1.319890823E+000    0.000000000E+000    1.398776249E+000
        7   -1.319890823E+000    0.000000000E+000    1.295327973E+000
        8   -1.319890823E+000    0.000000000E+000    1.191879697E+000
        9   -1.319890823E+000    0.000000000E+000    1.088431421E+000
       10   -1.319890823E+000    0.000000000E+000    9.849831451E-001
       11   -1.319890823E+000    0.000000000E+000    8.815348693E-001
       12   -1.319890823E+000    0.000000000E+000    7.780865934E-001
       13   -1.319890823E+000    0.000000000E+000    6.746383176E-001
       14   -1.319890823E+000    0.000000000E+000    5.711900417E-001
       15   -1.319890823E+000    0.000000000E+000    4.677417658E-001
       16   -1.319890823E+000    0.000000000E+000    3.642934900E-001
       17   -1.319890823E+000    0.000000000E+000    2.608452141E-001
       18   -1.319890823E+000    0.000000000E+000    1.573969383E-001
       19   -1.319890823E+000    0.000000000E+000    5.394866239E-002
       20   -1.319890823E+000    0.000000000E+000   -4.949961347E-002
! ... 6161 like lines cut
/wb,elem,start            !  set before creation of elements
/com,*********** Elements for Body 1 "Part 1" ***********
et,1,186
keyo,1,2,1          ! set full integration on SOLID186
eblock,19,solid,,841
(19i9)
        1        1        1        1        0        0        0        0       20        0        1      784     1712     1714     1715      785     1656     1655     1654
     4207     6093     6095     4208     4212     6006     6004     4211     4206     6009     6007     6005
        1        1        1        1        0        0        0        0       20        0        2      756      784     1715     1716      813      785     1654     1653
     4121     4208     6096     4123     4210     4211     6002     4296     4122     4206     6005     6003
        1        1        1        1        0        0        0        0       20        0        3      728      756     1716     1717      841      813     1653     1652
     4036     4123     6097     4038     4295     4296     6000     4353     4037     4122     6003     6001
        1        1        1        1        0        0        0        0       20        0        4      700      728     1717     1718      869      841     1652     1651
     3951     4038     6098     3953     4352     4353     5998     4410     3952     4037     6001     5999
        1        1        1        1        0        0        0        0       20        0        5      672      700     1718     1719      897      869     1651     1650
     3866     3953     6099     3868     4409     4410     5996     4467     3867     3952     5999     5997
        1        1        1        1        0        0        0        0       20        0        6      644      672     1719     1720      925      897     1650     1649
     3781     3868     6100     3783     4466     4467     5994     4524     3782     3867     5997     5995
        1        1        1        1        0        0        0        0       20        0        7      616      644     1720     1721      953      925     1649     1648
     3696     3783     6101     3698     4523     4524     5992     4581     3697     3782     5995     5993
        1        1        1        1        0        0        0        0       20        0        8      588      616     1721     1722      981      953     1648     1647
     3611     3698     6102     3613     4580     4581     5990     4638     3612     3697     5993     5991
        1        1        1        1        0        0        0        0       20        0        9      560      588     1722     1723     1009      981     1647     1646
     3526     3613     6103     3528     4637     4638     5988     4695     3527     3612     5991     5989
        1        1        1        1        0        0        0        0       20        0       10      532      560     1723     1724     1037     1009     1646     1645
     3441     3528     6104     3443     4694     4695     5986     4752     3442     3527     5989     5987
! ... 1663 like lines cut
!Material Id = {4F04D21F-EA64-445B-A270-7027FA675112}
/wb,elem,end               !  done creating elements
/com,*********** Send User Defined Coordinate System(s) ***********
csys,0
toffst,273.15,  ! Temperature offset from absolute zero
/com,*********** Set Reference Temperature ***********
tref,22.
/wb,mat,start              !  starting to send materials
/com,*********** Send Materials ***********
Temperature = 'TEMP' ! Temperature
MP,DENS,1,7850,	! kg m^-3
MP,ALPX,1,1.2e-05,	! C^-1
MP,C,1,434,	! J kg^-1 C^-1
MP,KXX,1,60.5,	! W m^-1 C^-1
MP,RSVX,1,1.7e-07,	! kg m^3 A^-2 s^-3
MP,EX,1,200000000000,	! Pa
MP,NUXY,1,0.4999,
MP,MURX,1,10000,

/wb,mat,end                !  done sending materials
!************************* Model Summary ********************
!Part 1,	Structural Steel,	matid,	1
!************************* End Model Summary ********************
! get the diagonal of the bounding box. Needed later for other things
*get,_xmin,node,,mnloc,x
*get,_ymin,node,,mnloc,y
*get,_zmin,node,,mnloc,z
*get,_xmax,node,,mxloc,x
*get,_ymax,node,,mxloc,y
*get,_zmax,node,,mxloc,z
_ASMDIAG=(_xmax-_xmin)*(_xmax-_xmin)+(_ymax-_ymin)*(_ymax-_ymin)+(_zmax-_zmin)*(_zmax-_zmin)
_ASMDIAG=SQRT(_ASMDIAG)
/wb,contact,start          !  starting to send contact
/wb,contact,end            !  done creating contacts
/golist
/wb,load,start             !  starting to send loads
/com,*********** Fixed Supports ***********
CMBLOCK,_FIXEDSU,NODE,        6
(8i10)
      1625      1684      1713      1772      5947      6064
cmsel,s,_FIXEDSU
d,all,all
nsel,all
/com,*********** Define Force Using Surface Effect Elements ***********
local,12,0,0.,0.,0.,-0.,0.,0.
csys,0
et,2,154
eblock,10,,,29
(15i9)
      842        2        2        2       12     1715     1654     1655     1714     6005     6004     6007     6095
      843        2        2        2       12     1716     1653     1654     1715     6003     6002     6005     6096
      844        2        2        2       12     1717     1652     1653     1716     6001     6000     6003     6097
      845        2        2        2       12     1718     1651     1652     1717     5999     5998     6001     6098
      846        2        2        2       12     1719     1650     1651     1718     5997     5996     5999     6099
      847        2        2        2       12     1720     1649     1650     1719     5995     5994     5997     6100
      848        2        2        2       12     1721     1648     1649     1720     5993     5992     5995     6101
      849        2        2        2       12     1722     1647     1648     1721     5991     5990     5993     6102
      850        2        2        2       12     1723     1646     1647     1722     5989     5988     5991     6103
      851        2        2        2       12     1724     1645     1646     1723     5987     5986     5989     6104
      852        2        2        2       12     1725     1644     1645     1724     5985     5984     5987     6105
      853        2        2        2       12     1726     1643     1644     1725     5983     5982     5985     6106
      854        2        2        2       12     1727     1642     1643     1726     5981     5980     5983     6107
      855        2        2        2       12     1728     1641     1642     1727     5979     5978     5981     6108
      856        2        2        2       12     1729     1640     1641     1728     5977     5976     5979     6109
      857        2        2        2       12     1730     1639     1640     1729     5975     5974     5977     6110
      858        2        2        2       12     1731     1638     1639     1730     5973     5972     5975     6111
      859        2        2        2       12     1732     1637     1638     1731     5971     5970     5973     6112
      860        2        2        2       12     1733     1636     1637     1732     5969     5968     5971     6113
      861        2        2        2       12     1734     1635     1636     1733     5967     5966     5969     6114
! ... 10 like lines cut
esel,s,type,,2
keyop,2,2,1                ! Apply load in local coordinate system
keyop,2,7,1                ! Use original area so load is constant in large deformation
keyop,2,11,2               ! Use real and not project area
esel,all

*DIM,_loadvari29x,TABLE,2,1,1,TIME,
! Time values
_loadvari29x(1,0,1) = 0.
_loadvari29x(2,0,1) = 1.
! Load values
_loadvari29x(1,1,1) = 0.
_loadvari29x(2,1,1) = 0.


*DIM,_loadvari29y,TABLE,2,1,1,TIME,
! Time values
_loadvari29y(1,0,1) = 0.
_loadvari29y(2,0,1) = 1.
! Load values
_loadvari29y(1,1,1) = 0.
_loadvari29y(2,1,1) = 0.


*DIM,_loadvari29z,TABLE,2,1,1,TIME,
! Time values
_loadvari29z(1,0,1) = 0.
_loadvari29z(2,0,1) = 1.
! Load values
_loadvari29z(1,1,1) = -0.
_loadvari29z(2,1,1) = -2000.00000011509

/gst,on,on
fini
*get,_numnode,node,0,count
*get,_numelem,elem,0,count
*get, _MAXELEMNUM, elem, 0, NUM, MAX
*get, _MAXNODENUM, node, 0, NUM, MAX
*get, _MAXELEMTYPE, etyp, 0, NUM, MAX
*get, _MAXREALCONST, real, 0, NUM, MAX
/go
/wb,load,end               !  done creating loads
/com,--- Number of total nodes = %_numnode%
/com,--- Number of contact elements = 29
/com,--- Number of spring elements = 0
/com,--- Number of bearing elements = 0
/com,--- Number of solid elements = 841
/com,--- Number of condensed parts = 0
/com,--- Number of total elements = %_numelem%
*get,_wallbsol,active,,time,wall
/com,****************************************************************************
/com,*************************    SOLUTION       ********************************
/com,****************************************************************************
/solu
antype,0                   ! static analysis
eqsl,sparse,,,,,1
cntr,print,1               ! print out contact info and also make no initial contact an error
dmpoption,emat,no             ! Don't combine emat file for DANSYS
dmpoption,esav,no             ! Don't combine esav file for DANSYS
nldiag,cont,iter           ! print out contact info each equilibrium iteration
rescontrol,,none                 ! Do not keep any restart files
/com,****************************************************
/com,******************* SOLVE FOR LS 1 OF 1 ****************
esel,s,type,,2
nsle
sfe,all,1,pres,1,%_loadvari29x%
sfe,all,2,pres,1,%_loadvari29y%
sfe,all,3,pres,1,%_loadvari29z%
nsel,all
esel,all
/nopr
/gopr
nsub,1,1,1
time,1.
outres,erase
outres,all,none
outres,nsol,all
outres,rsol,all
outres,strs,all
outres,epel,all
outres,eppl,all
stabilize,off                   ! Stabilization turned OFF by user
! *********** WB SOLVE COMMAND ***********
! check interactive state
*get,ANSINTER_,active,,int
*if,ANSINTER_,ne,0,then
/eof
*endif
solve
/com *************** Write FE CONNECTORS ********* 
CEWRITE,file,ce,,INTE
/com,****************************************************
/com,*************** FINISHED SOLVE FOR LS 1 *************
*get,_wallasol,active,,time,wall
/nopr
*get,_numnode,node,0,count
*get,_numelem,elem,0,count
*get, _MAXELEMNUM, elem, 0, NUM, MAX
*get, _MAXNODENUM, node, 0, NUM, MAX,,,INTERNAL
*get, _MAXELEMTYPE, etyp, 0, NUM, MAX
*get, _MAXREALCONST, real, 0, NUM, MAX
/gopr
/post1
xmlo,ENCODING,ISO-8859-1
xmlo,parm
/xml,parm,xml
fini
/gopr
*get,_walldone,active,,time,wall
_preptime=(_wallbsol-_wallstrt)*3600
_solvtime=(_wallasol-_wallbsol)*3600
_posttime=(_walldone-_wallasol)*3600
_totaltim=(_walldone-_wallstrt)*3600
/wb,file,end               ! done with WB generated input
