/batch
/config,noeldb,1     ! force off writing results to database
*get,_wallstrt,active,,time,wall
! ANSYS input file written by Workbench version 19.0 RELEASE
! File used for geometry attach: E:\practicle\fem project\ansys_files\dp0\SYS-1\DM\SYS-1.agdb
/title,ansys--Static Structural (B5)
*DIM,_wb_ProjectScratch_dir,string,248
_wb_ProjectScratch_dir(1) = 'E:\practicle\fem project\_ProjectScratch\ScrBF0F\'
*DIM,_wb_SolverFiles_dir,string,248
_wb_SolverFiles_dir(1) = 'E:\practicle\fem project\ansys_files\dp0\SYS-1\MECH\'
*DIM,_wb_userfiles_dir,string,248
_wb_userfiles_dir(1) = 'E:\practicle\fem project\ansys_files\user_files\'
/com,--- Data in consistent MKS units. See Solving Units in the help system for more information.
/units,MKS
/nopr
/wb,file,start              !  signify a WB generated input file
/prep7
! Turn off shape checking because checks already performed inside WB mesher.
! See help system for more information.
SHPP,OFF,,NOWARN
/nolist
etcon,set             ! allow ANSYS to choose best KEYOP's for 180x elements
/com,*********** Nodes for the whole assembly ***********
nblock,3,,1900
(1i9,3e20.9e3)
        1    1.376660901E+000    0.000000000E+000    1.819465904E+000
        2    1.176660901E+000    0.000000000E+000    1.819465904E+000
        3    9.766609010E-001    0.000000000E+000    1.819465904E+000
        4    7.766609010E-001    0.000000000E+000    1.819465904E+000
        5    5.766609606E-001    0.000000000E+000    1.819465904E+000
        6    3.766609010E-001    0.000000000E+000    1.819465904E+000
        7    1.766609010E-001    0.000000000E+000    1.819465904E+000
        8   -2.333909905E-002    0.000000000E+000    1.819465904E+000
        9   -2.233390990E-001    0.000000000E+000    1.819465904E+000
       10   -4.233390692E-001    0.000000000E+000    1.819465904E+000
       11   -6.233390990E-001    0.000000000E+000    1.819465904E+000
       12   -8.233390990E-001    0.000000000E+000    1.819465904E+000
       13   -1.023339099E+000    0.000000000E+000    1.819465904E+000
       14   -1.223339099E+000    0.000000000E+000    1.819465904E+000
       15    1.376660901E+000    0.000000000E+000    1.619465904E+000
       16    1.176660901E+000    0.000000000E+000    1.619465904E+000
       17    9.766609010E-001    0.000000000E+000    1.619465904E+000
       18    7.766609010E-001    0.000000000E+000    1.619465904E+000
       19    5.766609606E-001    0.000000000E+000    1.619465904E+000
       20    3.766609010E-001    0.000000000E+000    1.619465904E+000
! ... 1709 like lines cut
/wb,elem,start            !  set before creation of elements
/com,*********** Elements for Body 1 "Solid" ***********
et,1,186
keyo,1,2,1          ! set full integration on SOLID186
eblock,19,solid,,225
(19i9)
        1        1        1        1        0        0        0        0       20        0        1      196      482      483      512      197      423      422      406
     1127     1699     1700     1128     1132     1608     1576     1131     1126     1611     1609     1577
        1        1        1        1        0        0        0        0       20        0        2      182      196      512      511      211      197      406      405
     1083     1128     1728     1085     1130     1131     1574     1174     1084     1126     1577     1575
        1        1        1        1        0        0        0        0       20        0        3      168      182      511      510      225      211      405      404
     1040     1085     1727     1042     1173     1174     1572     1203     1041     1084     1575     1573
        1        1        1        1        0        0        0        0       20        0        4      154      168      510      509      239      225      404      403
      997     1042     1726      999     1202     1203     1570     1232      998     1041     1573     1571
        1        1        1        1        0        0        0        0       20        0        5      140      154      509      508      253      239      403      402
      954      999     1725      956     1231     1232     1568     1261      955      998     1571     1569
        1        1        1        1        0        0        0        0       20        0        6      126      140      508      507      267      253      402      401
      911      956     1724      913     1260     1261     1566     1290      912      955     1569     1567
        1        1        1        1        0        0        0        0       20        0        7      112      126      507      506      281      267      401      400
      868      913     1723      870     1289     1290     1564     1319      869      912     1567     1565
        1        1        1        1        0        0        0        0       20        0        8       98      112      506      505      295      281      400      399
      825      870     1722      827     1318     1319     1562     1348      826      869     1565     1563
        1        1        1        1        0        0        0        0       20        0        9       84       98      505      504      309      295      399      398
      782      827     1721      784     1347     1348     1560     1377      783      826     1563     1561
        1        1        1        1        0        0        0        0       20        0       10       70       84      504      503      323      309      398      397
      739      784     1720      741     1376     1377     1558     1406      740      783     1561     1559
! ... 431 like lines cut
!Material Id = {9EA19F93-0943-4BAC-B70D-3B09B800A7EC}
/wb,elem,end               !  done creating elements
/com,*********** Send User Defined Coordinate System(s) ***********
local,12,0,-1.423339099049,0.,2.019465903768,-0.,0.,0.
local,13,0,-0.4233,0.,2.0195,-0.,0.,0.
local,14,0,0.5767,0.,2.0195,-0.,0.,0.
local,15,0,1.5767,0.,2.0195,-0.,0.,0.
local,16,0,1.5767,0.,1.0195,-0.,0.,0.
local,17,0,1.5767,0.,1.95e-002,-0.,0.,0.
local,18,0,1.5767,0.,-0.9805,-0.,0.,0.
local,19,0,0.5767,0.,-0.9805,-0.,0.,0.
local,20,0,-0.4233,0.,-0.9805,-0.,0.,0.
local,21,0,-1.4233,0.,-0.9805,-0.,0.,0.
local,22,0,-1.4233,0.,1.95e-002,-0.,0.,0.
local,23,0,-1.4233,0.,1.0195,-0.,0.,0.
local,24,0,-0.4233,0.,1.0195,-0.,0.,0.
local,25,0,0.5767,0.,1.095,-0.,0.,0.
local,26,0,0.5767,0.,1.95e-002,-0.,0.,0.
local,27,0,-0.4233,0.,1.95e-002,-0.,0.,0.
csys,0
toffst,273.15,  ! Temperature offset from absolute zero
/com,*********** Set Reference Temperature ***********
tref,22.
/wb,mat,start              !  starting to send materials
/com,*********** Send Materials ***********
Temperature = 'TEMP' ! Temperature
MP,DENS,1,7850,	! kg m^-3
MP,ALPX,1,1.2e-05,	! C^-1
MP,C,1,434,	! J kg^-1 C^-1
MP,KXX,1,60.5,	! W m^-1 C^-1
MP,RSVX,1,1.7e-07,	! kg m^3 A^-2 s^-3
MP,EX,1,200000000000,	! Pa
MP,NUXY,1,0.4999,
MP,MURX,1,10000,

/wb,mat,end                !  done sending materials
!************************* Model Summary ********************
!Solid,	Structural Steel,	matid,	1
!************************* End Model Summary ********************
! get the diagonal of the bounding box. Needed later for other things
*get,_xmin,node,,mnloc,x
*get,_ymin,node,,mnloc,y
*get,_zmin,node,,mnloc,z
*get,_xmax,node,,mxloc,x
*get,_ymax,node,,mxloc,y
*get,_zmax,node,,mxloc,z
_ASMDIAG=(_xmax-_xmin)*(_xmax-_xmin)+(_ymax-_ymin)*(_ymax-_ymin)+(_zmax-_zmin)*(_zmax-_zmin)
_ASMDIAG=SQRT(_ASMDIAG)
/wb,contact,start          !  starting to send contact
/wb,contact,end            !  done creating contacts
/golist
/wb,load,start             !  starting to send loads
/com,*********** Fixed Supports ***********
CMBLOCK,_FIXEDSU,NODE,        2
(8i10)
       421       422
cmsel,s,_FIXEDSU
d,all,all
nsel,all
/com,*********** Define Force Using Surface Effect Elements ***********
local,28,0,0.,0.,0.,-0.,0.,0.
csys,0
et,2,156
keyop,2,5,1   ! No orientation node
eblock,10,,,15
(15i9)
      226        2        2        2       28      438      437     1638
      227        2        2        2       28      439      438     1640
      228        2        2        2       28      440      439     1642
      229        2        2        2       28      441      440     1644
      230        2        2        2       28      442      441     1646
      231        2        2        2       28      443      442     1648
      232        2        2        2       28      444      443     1650
      233        2        2        2       28      445      444     1652
      234        2        2        2       28      446      445     1654
      235        2        2        2       28      447      446     1656
      236        2        2        2       28      448      447     1658
      237        2        2        2       28      449      448     1660
      238        2        2        2       28      450      449     1662
      239        2        2        2       28      451      450     1664
      240        2        2        2       28      452      451     1666
-1
esel,s,type,,2
keyop,2,2,1                ! Apply load in local coordinate system
keyop,2,7,1                ! Use original area so load is constant in large deformation
esel,all

*DIM,_loadvari46x,TABLE,2,1,1,TIME,
! Time values
_loadvari46x(1,0,1) = 0.
_loadvari46x(2,0,1) = 1.
! Load values
_loadvari46x(1,1,1) = 0.
_loadvari46x(2,1,1) = 2.


*DIM,_loadvari46y,TABLE,2,1,1,TIME,
! Time values
_loadvari46y(1,0,1) = 0.
_loadvari46y(2,0,1) = 1.
! Load values
_loadvari46y(1,1,1) = 0.
_loadvari46y(2,1,1) = 0.


*DIM,_loadvari46z,TABLE,2,1,1,TIME,
! Time values
_loadvari46z(1,0,1) = 0.
_loadvari46z(2,0,1) = 1.
! Load values
_loadvari46z(1,1,1) = 0.
_loadvari46z(2,1,1) = 0.

/gst,on,on
fini
*get,_numnode,node,0,count
*get,_numelem,elem,0,count
*get, _MAXELEMNUM, elem, 0, NUM, MAX
*get, _MAXNODENUM, node, 0, NUM, MAX
*get, _MAXELEMTYPE, etyp, 0, NUM, MAX
*get, _MAXREALCONST, real, 0, NUM, MAX
/go
/wb,load,end               !  done creating loads
/com,--- Number of total nodes = %_numnode%
/com,--- Number of contact elements = 15
/com,--- Number of spring elements = 0
/com,--- Number of bearing elements = 0
/com,--- Number of solid elements = 225
/com,--- Number of condensed parts = 0
/com,--- Number of total elements = %_numelem%
*get,_wallbsol,active,,time,wall
/com,****************************************************************************
/com,*************************    SOLUTION       ********************************
/com,****************************************************************************
/solu
antype,0                   ! static analysis
eqsl,sparse,,,,,1
cntr,print,1               ! print out contact info and also make no initial contact an error
dmpoption,emat,no             ! Don't combine emat file for DANSYS
dmpoption,esav,no             ! Don't combine esav file for DANSYS
nldiag,cont,iter           ! print out contact info each equilibrium iteration
rescontrol,,none                 ! Do not keep any restart files
/com,****************************************************
/com,******************* SOLVE FOR LS 1 OF 1 ****************
esel,s,type,,2
nsle
sfe,all,1,pres,1,%_loadvari46x%
sfe,all,2,pres,1,%_loadvari46y%
sfe,all,3,pres,1,%_loadvari46z%
nsel,all
esel,all
/nopr
/gopr
nsub,1,1,1
time,1.
outres,erase
outres,all,none
outres,nsol,all
outres,rsol,all
outres,strs,all
outres,epel,all
outres,eppl,all
stabilize,off                   ! Stabilization turned OFF by user
! *********** WB SOLVE COMMAND ***********
! check interactive state
*get,ANSINTER_,active,,int
*if,ANSINTER_,ne,0,then
/eof
*endif
solve
/com *************** Write FE CONNECTORS ********* 
CEWRITE,file,ce,,INTE
/com,****************************************************
/com,*************** FINISHED SOLVE FOR LS 1 *************
*get,_wallasol,active,,time,wall
/nopr
*get,_numnode,node,0,count
*get,_numelem,elem,0,count
*get, _MAXELEMNUM, elem, 0, NUM, MAX
*get, _MAXNODENUM, node, 0, NUM, MAX,,,INTERNAL
*get, _MAXELEMTYPE, etyp, 0, NUM, MAX
*get, _MAXREALCONST, real, 0, NUM, MAX
/gopr
/post1
xmlo,ENCODING,ISO-8859-1
xmlo,parm
/xml,parm,xml
fini
/gopr
*get,_walldone,active,,time,wall
_preptime=(_wallbsol-_wallstrt)*3600
_solvtime=(_wallasol-_wallbsol)*3600
_posttime=(_walldone-_wallasol)*3600
_totaltim=(_walldone-_wallstrt)*3600
/wb,file,end               ! done with WB generated input
